Version 4.1
SHEET 1 1420 708
WIRE 576 -192 528 -192
WIRE 176 -176 112 -176
WIRE 336 -176 256 -176
WIRE 480 -176 416 -176
WIRE 528 -176 528 -192
WIRE 528 -176 480 -176
WIRE 688 -176 640 -176
WIRE 704 -176 688 -176
WIRE 880 -176 784 -176
WIRE 1040 -176 944 -176
WIRE 576 -160 544 -160
WIRE 112 -144 112 -176
WIRE 480 -128 480 -176
WIRE 1040 -128 1040 -176
WIRE 544 -64 544 -160
WIRE 688 -64 688 -176
WIRE 688 -64 544 -64
WIRE 112 -32 112 -64
WIRE 240 -32 112 -32
WIRE 480 -32 480 -64
WIRE 480 -32 240 -32
WIRE 1040 -32 1040 -48
WIRE 240 -16 240 -32
WIRE 864 528 864 496
WIRE 864 528 736 528
WIRE 864 544 864 528
FLAG 736 528 0
FLAG 864 416 +12
FLAG 864 624 -12
FLAG 608 -208 -12
FLAG 608 -144 +12
FLAG 240 -16 0
FLAG 1040 -32 0
SYMBOL OpAmps\\ADTL082 608 -112 M180
SYMATTR InstName U1
SYMBOL voltage 864 400 R0
WINDOW 123 0 0 Left 0
WINDOW 39 0 0 Left 0
SYMATTR InstName V1
SYMATTR Value 12
SYMBOL voltage 864 528 R0
WINDOW 123 0 0 Left 0
WINDOW 39 0 0 Left 0
SYMATTR InstName V2
SYMATTR Value 12
SYMBOL voltage 112 -160 R0
WINDOW 123 24 124 Left 2
WINDOW 39 0 0 Left 0
SYMATTR Value2 AC 1
SYMATTR InstName V3
SYMATTR Value ""
SYMBOL res 272 -192 R90
WINDOW 0 0 56 VBottom 2
WINDOW 3 32 56 VTop 2
SYMATTR InstName R1
SYMATTR Value 300
SYMBOL ind 320 -160 R270
WINDOW 0 32 56 VTop 2
WINDOW 3 5 56 VBottom 2
SYMATTR InstName L1
SYMATTR Value 10m
SYMATTR SpiceLine Rser=1m
SYMBOL cap 464 -128 R0
SYMATTR InstName C1
SYMATTR Value 220n
SYMBOL res 800 -192 R90
WINDOW 0 0 56 VBottom 2
WINDOW 3 32 56 VTop 2
SYMATTR InstName R2
SYMATTR Value 270
SYMBOL cap 944 -192 R90
WINDOW 0 0 32 VBottom 2
WINDOW 3 32 32 VTop 2
SYMATTR InstName C2
SYMATTR Value 2.7”
SYMBOL ind 1024 -144 R0
SYMATTR InstName L2
SYMATTR Value 100m
SYMATTR SpiceLine Rser=1m
TEXT 376 -472 Left 2 !.ac dec 100 20 100k
